<?xml version="1.0" encoding="UTF-8"?>
<!-- I-595 toll-plaza — nodes in UTM 17N (EPSG:32617), generated by georef_nodes.py.
     Do NOT hand-edit; re-run: python3 sumo/georef_nodes.py
     Anchor: lon=-80.306, lat=26.1124 (sumoRefX=530.0, sumoRefY=0.0), bearing=104.0 deg, scale=1.
     UTM anchor: E=569388.720, N=2888316.492 -->
<nodes>
  <node id="A" x="568874.464" y="2888444.711" type="priority"/>  <!-- local x=0, y=0 -->
  <node id="B" x="569262.582" y="2888347.942" type="priority"/>  <!-- local x=400, y=0 -->
  <node id="C" x="569359.612" y="2888323.750" type="priority"/>  <!-- local x=500, y=0 -->
  <node id="D" x="569388.720" y="2888316.492" type="priority"/>  <!-- local x=530, y=0 -->
  <node id="E" x="569485.750" y="2888292.300" type="priority"/>  <!-- local x=630, y=0 -->
  <node id="F" x="569776.839" y="2888219.723" type="priority"/>  <!-- local x=930, y=0 -->
</nodes>
